LAMMPS (29 Oct 2020)
units		lj
atom_style		atomic
dimension		3
boundary		p p p

#creating atoms in a sc lattice
lattice		sc 0.6
Lattice spacing in x,y,z = 1.1856311 1.1856311 1.1856311
region		box block 0 10 0 10 0 10
create_box		1 box
Created orthogonal box = (0.0000000 0.0000000 0.0000000) to (11.856311 11.856311 11.856311)
create_atoms	1 box
Created 1000 atoms

#setting up potentials
pair_style		lj/cut 3.5
pair_modify	shift yes
pair_coeff		1 1 1.0 1.0
mass		1 1.0

neighbor		0.3 bin
neigh_modify	delay 10 every 1

fix		1 all nvt temp 1.0 1.0 5.0

velocity		all create 1.0 199956 mom no

timestep		0.01

thermo_style	custom step temp etotal pe ke press vol density
thermo		250

#dump		2 all custom 250 position.lammpstrj id x y z vx vy vz

compute		RDF all rdf 150 cutoff 3.5
fix		RD_OUT all ave/time 10 5 5000 c_RDF[*] file rdf.out mode vector

run_style		verlet

run		5000
  update every 1 steps, delay 10 steps, check yes
Step Temp TotEng PotEng KinEng Press Volume Density
0            1    -2.709841    -4.208341       1.4985   -2.6415761    1666.6667          0.6
Averages over the last 11 of 21 rows, steps 2500 to 5000:
Temp TotEng PotEng KinEng Press Volume Density
1.00233 -2.48177 -3.98376 1.50198 -0.127814 1666.67 0.6
Loop time of 7.33308 on 1 procs for 5000 steps with 1000 atoms
